data_image0
_cell_length_a       13.677
_cell_length_b       12.607
_cell_length_c       18.497
_cell_angle_alpha    90
_cell_angle_beta     90
_cell_angle_gamma    90

_symmetry_space_group_name_H-M    "P 1"
_symmetry_int_tables_number       1

loop_
  _symmetry_equiv_pos_as_xyz
  'x, y, z'

loop_
  _atom_site_label
  _atom_site_occupancy
  _atom_site_fract_x
  _atom_site_fract_y
  _atom_site_fract_z
  _atom_site_thermal_displace_type
  _atom_site_B_iso_or_equiv
  _atom_site_type_symbol
  O1       1.0000 0.00000  0.00040  0.16140  Biso   1.000  O
  O2       1.0000 0.50000  0.50040  0.16140  Biso   1.000  O
  O3       1.0000 0.00000  0.99960  0.66140  Biso   1.000  O
  O4       1.0000 0.50000  0.49960  0.66140  Biso   1.000  O
  O5       1.0000 0.00000  0.99960  0.83860  Biso   1.000  O
  O6       1.0000 0.50000  0.49960  0.83860  Biso   1.000  O
  O7       1.0000 0.00000  0.00040  0.33860  Biso   1.000  O
  O8       1.0000 0.50000  0.50040  0.33860  Biso   1.000  O
  O9       1.0000 0.14490  0.04380  0.25000  Biso   1.000  O
  O10      1.0000 0.64490  0.54380  0.25000  Biso   1.000  O
  O11      1.0000 0.85510  0.04380  0.25000  Biso   1.000  O
  O12      1.0000 0.35510  0.54380  0.25000  Biso   1.000  O
  O13      1.0000 0.14490  0.95620  0.75000  Biso   1.000  O
  O14      1.0000 0.64490  0.45620  0.75000  Biso   1.000  O
  O15      1.0000 0.85510  0.95620  0.75000  Biso   1.000  O
  O16      1.0000 0.35510  0.45620  0.75000  Biso   1.000  O
  O17      1.0000 0.12520  0.15150  0.12930  Biso   1.000  O
  O18      1.0000 0.62520  0.65150  0.12930  Biso   1.000  O
  O19      1.0000 0.87480  0.15150  0.12930  Biso   1.000  O
  O20      1.0000 0.37480  0.65150  0.12930  Biso   1.000  O
  O21      1.0000 0.12520  0.84850  0.62930  Biso   1.000  O
  O22      1.0000 0.62520  0.34850  0.62930  Biso   1.000  O
  O23      1.0000 0.87480  0.84850  0.62930  Biso   1.000  O
  O24      1.0000 0.37480  0.34850  0.62930  Biso   1.000  O
  O25      1.0000 0.87480  0.84850  0.87070  Biso   1.000  O
  O26      1.0000 0.37480  0.34850  0.87070  Biso   1.000  O
  O27      1.0000 0.12520  0.84850  0.87070  Biso   1.000  O
  O28      1.0000 0.62520  0.34850  0.87070  Biso   1.000  O
  O29      1.0000 0.87480  0.15150  0.37070  Biso   1.000  O
  O30      1.0000 0.37480  0.65150  0.37070  Biso   1.000  O
  O31      1.0000 0.12520  0.15150  0.37070  Biso   1.000  O
  O32      1.0000 0.62520  0.65150  0.37070  Biso   1.000  O
  O33      1.0000 0.18040  0.95170  0.12530  Biso   1.000  O
  O34      1.0000 0.68040  0.45170  0.12530  Biso   1.000  O
  O35      1.0000 0.81960  0.95170  0.12530  Biso   1.000  O
  O36      1.0000 0.31960  0.45170  0.12530  Biso   1.000  O
  O37      1.0000 0.18040  0.04830  0.62530  Biso   1.000  O
  O38      1.0000 0.68040  0.54830  0.62530  Biso   1.000  O
  O39      1.0000 0.81960  0.04830  0.62530  Biso   1.000  O
  O40      1.0000 0.31960  0.54830  0.62530  Biso   1.000  O
  O41      1.0000 0.81960  0.04830  0.87470  Biso   1.000  O
  O42      1.0000 0.31960  0.54830  0.87470  Biso   1.000  O
  O43      1.0000 0.18040  0.04830  0.87470  Biso   1.000  O
  O44      1.0000 0.68040  0.54830  0.87470  Biso   1.000  O
  O45      1.0000 0.81960  0.95170  0.37470  Biso   1.000  O
  O46      1.0000 0.31960  0.45170  0.37470  Biso   1.000  O
  O47      1.0000 0.18040  0.95170  0.37470  Biso   1.000  O
  O48      1.0000 0.68040  0.45170  0.37470  Biso   1.000  O
  O49      1.0000 0.14650  0.83220  0.01160  Biso   1.000  O
  O50      1.0000 0.64650  0.33220  0.01160  Biso   1.000  O
  O51      1.0000 0.85350  0.83220  0.01160  Biso   1.000  O
  O52      1.0000 0.35350  0.33220  0.01160  Biso   1.000  O
  O53      1.0000 0.14650  0.16780  0.51160  Biso   1.000  O
  O54      1.0000 0.64650  0.66780  0.51160  Biso   1.000  O
  O55      1.0000 0.85350  0.16780  0.51160  Biso   1.000  O
  O56      1.0000 0.35350  0.66780  0.51160  Biso   1.000  O
  O57      1.0000 0.85350  0.16780  0.98840  Biso   1.000  O
  O58      1.0000 0.35350  0.66780  0.98840  Biso   1.000  O
  O59      1.0000 0.14650  0.16780  0.98840  Biso   1.000  O
  O60      1.0000 0.64650  0.66780  0.98840  Biso   1.000  O
  O61      1.0000 0.85350  0.83220  0.48840  Biso   1.000  O
  O62      1.0000 0.35350  0.33220  0.48840  Biso   1.000  O
  O63      1.0000 0.14650  0.83220  0.48840  Biso   1.000  O
  O64      1.0000 0.64650  0.33220  0.48840  Biso   1.000  O
  O65      1.0000 0.00000  0.73640  0.94680  Biso   1.000  O
  O66      1.0000 0.50000  0.23640  0.94680  Biso   1.000  O
  O67      1.0000 0.00000  0.26360  0.44680  Biso   1.000  O
  O68      1.0000 0.50000  0.76360  0.44680  Biso   1.000  O
  O69      1.0000 0.00000  0.26360  0.05320  Biso   1.000  O
  O70      1.0000 0.50000  0.76360  0.05320  Biso   1.000  O
  O71      1.0000 0.00000  0.73640  0.55320  Biso   1.000  O
  O72      1.0000 0.50000  0.23640  0.55320  Biso   1.000  O
  O73      1.0000 0.17940  0.66720  0.92810  Biso   1.000  O
  O74      1.0000 0.67940  0.16720  0.92810  Biso   1.000  O
  O75      1.0000 0.82060  0.66720  0.92810  Biso   1.000  O
  O76      1.0000 0.32060  0.16720  0.92810  Biso   1.000  O
  O77      1.0000 0.17940  0.33280  0.42810  Biso   1.000  O
  O78      1.0000 0.67940  0.83280  0.42810  Biso   1.000  O
  O79      1.0000 0.82060  0.33280  0.42810  Biso   1.000  O
  O80      1.0000 0.32060  0.83280  0.42810  Biso   1.000  O
  O81      1.0000 0.82060  0.33280  0.07190  Biso   1.000  O
  O82      1.0000 0.32060  0.83280  0.07190  Biso   1.000  O
  O83      1.0000 0.17940  0.33280  0.07190  Biso   1.000  O
  O84      1.0000 0.67940  0.83280  0.07190  Biso   1.000  O
  O85      1.0000 0.82060  0.66720  0.57190  Biso   1.000  O
  O86      1.0000 0.32060  0.16720  0.57190  Biso   1.000  O
  O87      1.0000 0.17940  0.66720  0.57190  Biso   1.000  O
  O88      1.0000 0.67940  0.16720  0.57190  Biso   1.000  O
  O89      1.0000 0.74040  0.00000  0.00000  Biso   1.000  O
  O90      1.0000 0.24040  0.50000  0.00000  Biso   1.000  O
  O91      1.0000 0.25960  0.00000  0.00000  Biso   1.000  O
  O92      1.0000 0.75960  0.50000  0.00000  Biso   1.000  O
  O93      1.0000 0.74040  0.00000  0.50000  Biso   1.000  O
  O94      1.0000 0.24040  0.50000  0.50000  Biso   1.000  O
  O95      1.0000 0.25960  0.00000  0.50000  Biso   1.000  O
  O96      1.0000 0.75960  0.50000  0.50000  Biso   1.000  O
  Si1      1.0000 0.11260  0.03690  0.16640  Biso   1.000  Si
  Si2      1.0000 0.61260  0.53690  0.16640  Biso   1.000  Si
  Si3      1.0000 0.88740  0.03690  0.16640  Biso   1.000  Si
  Si4      1.0000 0.38740  0.53690  0.16640  Biso   1.000  Si
  Si5      1.0000 0.11260  0.96310  0.66640  Biso   1.000  Si
  Si6      1.0000 0.61260  0.46310  0.66640  Biso   1.000  Si
  Si7      1.0000 0.88740  0.96310  0.66640  Biso   1.000  Si
  Si8      1.0000 0.38740  0.46310  0.66640  Biso   1.000  Si
  Si9      1.0000 0.88740  0.96310  0.83360  Biso   1.000  Si
  Si10     1.0000 0.38740  0.46310  0.83360  Biso   1.000  Si
  Si11     1.0000 0.11260  0.96310  0.83360  Biso   1.000  Si
  Si12     1.0000 0.61260  0.46310  0.83360  Biso   1.000  Si
  Si13     1.0000 0.88740  0.03690  0.33360  Biso   1.000  Si
  Si14     1.0000 0.38740  0.53690  0.33360  Biso   1.000  Si
  Si15     1.0000 0.11260  0.03690  0.33360  Biso   1.000  Si
  Si16     1.0000 0.61260  0.53690  0.33360  Biso   1.000  Si
  Si17     1.0000 0.11280  0.77110  0.93940  Biso   1.000  Si
  Si18     1.0000 0.61280  0.27110  0.93940  Biso   1.000  Si
  Si19     1.0000 0.88720  0.77110  0.93940  Biso   1.000  Si
  Si20     1.0000 0.38720  0.27110  0.93940  Biso   1.000  Si
  Si21     1.0000 0.11280  0.22890  0.43940  Biso   1.000  Si
  Si22     1.0000 0.61280  0.72890  0.43940  Biso   1.000  Si
  Si23     1.0000 0.88720  0.22890  0.43940  Biso   1.000  Si
  Si24     1.0000 0.38720  0.72890  0.43940  Biso   1.000  Si
  Si25     1.0000 0.88720  0.22890  0.06060  Biso   1.000  Si
  Si26     1.0000 0.38720  0.72890  0.06060  Biso   1.000  Si
  Si27     1.0000 0.11280  0.22890  0.06060  Biso   1.000  Si
  Si28     1.0000 0.61280  0.72890  0.06060  Biso   1.000  Si
  Si29     1.0000 0.88720  0.77110  0.56060  Biso   1.000  Si
  Si30     1.0000 0.38720  0.27110  0.56060  Biso   1.000  Si
  Si31     1.0000 0.11280  0.77110  0.56060  Biso   1.000  Si
  Si32     1.0000 0.61280  0.27110  0.56060  Biso   1.000  Si
  Si33     1.0000 0.77330  0.90420  0.05210  Biso   1.000  Si
  Si34     1.0000 0.27330  0.40420  0.05210  Biso   1.000  Si
  Si35     1.0000 0.22670  0.90420  0.05210  Biso   1.000  Si
  Si36     1.0000 0.72670  0.40420  0.05210  Biso   1.000  Si
  Si37     1.0000 0.77330  0.09580  0.55210  Biso   1.000  Si
  Si38     1.0000 0.27330  0.59580  0.55210  Biso   1.000  Si
  Si39     1.0000 0.22670  0.09580  0.55210  Biso   1.000  Si
  Si40     1.0000 0.72670  0.59580  0.55210  Biso   1.000  Si
  Si41     1.0000 0.22670  0.09580  0.94790  Biso   1.000  Si
  Si42     1.0000 0.72670  0.59580  0.94790  Biso   1.000  Si
  Si43     1.0000 0.77330  0.09580  0.94790  Biso   1.000  Si
  Si44     1.0000 0.27330  0.59580  0.94790  Biso   1.000  Si
  Si45     1.0000 0.22670  0.90420  0.44790  Biso   1.000  Si
  Si46     1.0000 0.72670  0.40420  0.44790  Biso   1.000  Si
  Si47     1.0000 0.77330  0.90420  0.44790  Biso   1.000  Si
  Si48     1.0000 0.27330  0.40420  0.44790  Biso   1.000  Si
